# generated using pymatgen
data_Li7Mn16O32
_symmetry_space_group_name_H-M   'P 1'
_cell_length_a   8.39193059
_cell_length_b   8.17966878
_cell_length_c   8.25018810
_cell_angle_alpha   90.11006574
_cell_angle_beta   90.17648314
_cell_angle_gamma   89.25247181
_symmetry_Int_Tables_number   1
_chemical_formula_structural   Li7Mn16O32
_chemical_formula_sum   'Li7 Mn16 O32'
_cell_volume   566.26752942
_cell_formula_units_Z   1
loop_
 _symmetry_equiv_pos_site_id
 _symmetry_equiv_pos_as_xyz
  1  'x, y, z'
loop_
 _atom_site_type_symbol
 _atom_site_label
 _atom_site_symmetry_multiplicity
 _atom_site_fract_x
 _atom_site_fract_y
 _atom_site_fract_z
 _atom_site_occupancy
  Li  Li0  1  0.12068092  0.62270688  0.61867009  1
  Li  Li1  1  0.87932038  0.87638085  0.87985707  1
  Li  Li2  1  0.11987634  0.12894429  0.12322807  1
  Li  Li3  1  0.88262584  0.37000634  0.37960887  1
  Li  Li4  1  0.37889635  0.87494950  0.38016837  1
  Li  Li5  1  0.61528500  0.12997138  0.62715558  1
  Li  Li6  1  0.61935559  0.62415167  0.11927610  1
  Mn  Mn7  1  0.50156427  0.25327405  0.24852997  1
  Mn  Mn8  1  0.25122623  0.49354862  0.23989405  1
  Mn  Mn9  1  0.25253237  0.25132624  0.50426628  1
  Mn  Mn10  1  0.50377407  0.50142512  0.49980060  1
  Mn  Mn11  1  0.50256967  0.74945385  0.75201198  1
  Mn  Mn12  1  0.76241159  0.50420498  0.74396957  1
  Mn  Mn13  1  0.75318096  0.75209188  0.49758823  1
  Mn  Mn14  1  0.24073872  0.99660428  0.75453091  1
  Mn  Mn15  1  0.24396365  0.74636358  0.99611200  1
  Mn  Mn16  1  0.49267714  0.00180973  0.00433783  1
  Mn  Mn17  1  0.74523473  0.00432461  0.25525889  1
  Mn  Mn18  1  0.75195183  0.24951264  0.00162337  1
  Mn  Mn19  1  0.00229709  0.24671738  0.75153491  1
  Mn  Mn20  1  0.00395307  0.49584739  0.99724032  1
  Mn  Mn21  1  0.99807656  0.75014378  0.24744680  1
  Mn  Mn22  1  0.99547398  0.00678632  0.49902473  1
  O  O23  1  0.75152119  0.01171561  0.02680524  1
  O  O24  1  0.01312314  0.72948666  0.01303951  1
  O  O25  1  0.01083316  0.01331330  0.73713573  1
  O  O26  1  0.75971268  0.73834479  0.72914989  1
  O  O27  1  0.23607430  0.97521644  0.98671281  1
  O  O28  1  0.98421418  0.26311438  0.98317269  1
  O  O29  1  0.97101819  0.01022868  0.26900994  1
  O  O30  1  0.27528043  0.26349006  0.23966225  1
  O  O31  1  0.76220355  0.52013503  0.51443946  1
  O  O32  1  0.01847353  0.24215383  0.52216965  1
  O  O33  1  0.02259597  0.48909299  0.22510653  1
  O  O34  1  0.72730230  0.23565114  0.26236123  1
  O  O35  1  0.24873235  0.48630469  0.46980925  1
  O  O36  1  0.98180288  0.76621620  0.47986686  1
  O  O37  1  0.99363633  0.48349623  0.76443789  1
  O  O38  1  0.24429473  0.76120748  0.76681090  1
  O  O39  1  0.25162542  0.01363959  0.52591988  1
  O  O40  1  0.52469683  0.73577007  0.51005478  1
  O  O41  1  0.51348579  0.01640006  0.23970216  1
  O  O42  1  0.23669833  0.73069067  0.23202369  1
  O  O43  1  0.74046069  0.98197985  0.48633275  1
  O  O44  1  0.48463057  0.26720147  0.48302660  1
  O  O45  1  0.47175678  0.98680390  0.76967117  1
  O  O46  1  0.77353518  0.27101195  0.74354719  1
  O  O47  1  0.23164686  0.51245736  0.00823518  1
  O  O48  1  0.52520094  0.23850512  0.02113413  1
  O  O49  1  0.53824536  0.51735160  0.73694088  1
  O  O50  1  0.22338044  0.22482824  0.76204016  1
  O  O51  1  0.77386978  0.49548409  0.98019550  1
  O  O52  1  0.47079583  0.75975961  0.99150083  1
  O  O53  1  0.48231292  0.48675409  0.25582624  1
  O  O54  1  0.75874136  0.76676802  0.26318405  1
