# generated using pymatgen
data_Li7Mn16O32
_symmetry_space_group_name_H-M   'P 1'
_cell_length_a   8.37493014
_cell_length_b   8.19636402
_cell_length_c   8.25291158
_cell_angle_alpha   89.72638428
_cell_angle_beta   90.01187653
_cell_angle_gamma   89.42115817
_symmetry_Int_Tables_number   1
_chemical_formula_structural   Li7Mn16O32
_chemical_formula_sum   'Li7 Mn16 O32'
_cell_volume   566.47727724
_cell_formula_units_Z   1
loop_
 _symmetry_equiv_pos_site_id
 _symmetry_equiv_pos_as_xyz
  1  'x, y, z'
loop_
 _atom_site_type_symbol
 _atom_site_label
 _atom_site_symmetry_multiplicity
 _atom_site_fract_x
 _atom_site_fract_y
 _atom_site_fract_z
 _atom_site_occupancy
  Li  Li0  1  0.37965426  0.37146717  0.87599052  1
  Li  Li1  1  0.88146564  0.87257498  0.87919515  1
  Li  Li2  1  0.11675990  0.12879960  0.12396851  1
  Li  Li3  1  0.88463522  0.37361726  0.37949804  1
  Li  Li4  1  0.37652841  0.87412392  0.38096221  1
  Li  Li5  1  0.61764195  0.12663310  0.62471980  1
  Li  Li6  1  0.62048925  0.62643512  0.11696532  1
  Mn  Mn7  1  0.50470883  0.25078425  0.24932565  1
  Mn  Mn8  1  0.26012464  0.49721694  0.24466055  1
  Mn  Mn9  1  0.25611723  0.24798025  0.50383552  1
  Mn  Mn10  1  0.50295902  0.49546718  0.49602704  1
  Mn  Mn11  1  0.49519329  0.75012553  0.75065737  1
  Mn  Mn12  1  0.74828104  0.49473516  0.74167505  1
  Mn  Mn13  1  0.74082632  0.75114304  0.49516497  1
  Mn  Mn14  1  0.24615102  1.00464459  0.76086742  1
  Mn  Mn15  1  0.25373536  0.75192117  1.00425084  1
  Mn  Mn16  1  0.49683576  0.00644212  0.00349207  1
  Mn  Mn17  1  0.74687626  0.00327175  0.25449709  1
  Mn  Mn18  1  0.75152911  0.25099000  -0.00191425  1
  Mn  Mn19  1  -0.00180851  0.25340990  0.74611580  1
  Mn  Mn20  1  0.00573548  0.49810018  0.99450804  1
  Mn  Mn21  1  0.99952403  0.74636109  0.25359871  1
  Mn  Mn22  1  0.99662576  -0.00057425  0.50386999  1
  O  O23  1  0.75443736  0.01568983  0.02584419  1
  O  O24  1  0.02263011  0.73395524  0.01775203  1
  O  O25  1  0.01370594  0.01504427  0.73913131  1
  O  O26  1  0.73002705  0.73222932  0.73181917  1
  O  O27  1  0.24043184  0.98194270  0.99138472  1
  O  O28  1  0.98382554  0.26454444  0.97881017  1
  O  O29  1  0.97455697  -0.00382068  0.27066497  1
  O  O30  1  0.27777426  0.26540971  0.24205614  1
  O  O31  1  0.73464073  0.51460084  0.50550570  1
  O  O32  1  0.01907972  0.23883996  0.51741152  1
  O  O33  1  0.03278273  0.49878114  0.23457477  1
  O  O34  1  0.73162509  0.23435746  0.25925175  1
  O  O35  1  0.27645039  0.48312229  0.47690560  1
  O  O36  1  0.96674863  0.76089782  0.48291986  1
  O  O37  1  0.97614664  0.48445418  0.75677322  1
  O  O38  1  0.26604151  0.77111720  0.77162660  1
  O  O39  1  0.25428451  0.01633035  0.52943443  1
  O  O40  1  0.51092515  0.72813129  0.50980917  1
  O  O41  1  0.51560537  0.01765990  0.23972382  1
  O  O42  1  0.25256009  0.73156707  0.23592010  1
  O  O43  1  0.73669894  0.97908800  0.48623263  1
  O  O44  1  0.49281070  0.26344682  0.48001079  1
  O  O45  1  0.47247648  1.01250396  0.77408296  1
  O  O46  1  0.77138927  0.26470669  0.73665426  1
  O  O47  1  0.26219901  0.52009327  0.01561544  1
  O  O48  1  0.51915432  0.24253538  0.02039357  1
  O  O49  1  0.51989617  0.48815829  0.72267348  1
  O  O50  1  0.22444212  0.23646812  0.76076586  1
  O  O51  1  0.74519700  0.48604274  0.96942725  1
  O  O52  1  0.48168623  0.76795963  0.98909966  1
  O  O53  1  0.49311191  0.48537080  0.26177496  1
  O  O54  1  0.74623413  0.76797489  0.26430469  1
